/*--------------------------------*- C++ -*----------------------------------*\
| =========                 |                                                 |
| \\      /  F ield         | OpenFOAM: The Open Source CFD Toolbox           |
|  \\    /   O peration     | Version:  2306                                  |
|   \\  /    A nd           | Website:  www.openfoam.com                      |
|    \\/     M anipulation  |                                                 |
\*---------------------------------------------------------------------------*/
FoamFile
{
    version     2.0;
    format      binary;
    arch        "LSB;label=32;scalar=64";
    class       polyBoundaryMesh;
    location    "constant/polyMesh";
    object      boundary;
}
// * * * * * * * * * * * * * * * * * * * * * * * * * * * * * * * * * * * * * //

4
(
    inlet
    {
        type            patch;
        nFaces          200;
        startFace       62371;
    }
    outlet
    {
        type            patch;
        nFaces          719;
        startFace       62571;
    }
    ground
    {
        type            wall;
        inGroups        1(wall);
        nFaces          1064;
        startFace       63290;
    }
    frontAndBack
    {
        type            symmetry;
        inGroups        1(symmetry);
        nFaces          1843;
        startFace       64354;
    }
)

// ************************************************************************* //
